!------------------------------------------------------------------------------
!                  Harvard-NASA Emissions Component (HEMCO)                   !
!------------------------------------------------------------------------------
!BOI
! !TITLE: The Harvard-NASA Emissions Component (HEMCO)\\Reference Guide
! !AUTHORS: GEOS-Chem Support Team
! !DATE: 16 Jul 2014
!EOI
!------------------------------------------------------------------------------
